*SPEF "1481-1998"
*DESIGN "DSNN_2Layer"
*DATE "Tue Mar 10 11:33:01 2026"
*VENDOR "Synopsys, Inc."
*PROGRAM "icc_shell"
*VERSION "U-2022.12-SP4"
*DESIGN_FLOW "PIN_CAP NONE"
*DIVIDER /
*DELIMITER :
*BUS_DELIMITER [ ]
*T_UNIT 1 NS
*C_UNIT 1 FF
*R_UNIT 1 OHM
*L_UNIT 1 HENRY

*NAME_MAP
*1 ecg_in[1]
*2 ecg_in[0]
*3 VDD
*4 ecg_in[9]
*5 ecg_in[8]
*6 ecg_in[7]
*7 ecg_in[6]
*8 ecg_in[5]
*9 ecg_in[4]
*10 ecg_in[3]
*11 ecg_in[2]
*12 layer2_out_flat[1]
*13 layer2_out_flat[0]
*14 ecg_in[15]
*15 ecg_in[14]
*16 ecg_in[13]
*17 ecg_in[12]
*18 ecg_in[11]
*19 ecg_in[10]
*20 layer2_out_flat[9]
*21 layer2_out_flat[8]
*22 layer2_out_flat[7]
*23 layer2_out_flat[6]
*24 layer2_out_flat[5]
*25 layer2_out_flat[4]
*26 layer2_out_flat[3]
*27 layer2_out_flat[2]
*28 layer2_out_flat[17]
*29 layer2_out_flat[16]
*30 layer2_out_flat[15]
*31 layer2_out_flat[14]
*32 layer2_out_flat[13]
*33 layer2_out_flat[12]
*34 layer2_out_flat[11]
*35 layer2_out_flat[10]
*36 layer2_out_flat[25]
*37 layer2_out_flat[24]
*38 layer2_out_flat[23]
*39 layer2_out_flat[22]
*40 layer2_out_flat[21]
*41 layer2_out_flat[20]
*42 layer2_out_flat[19]
*43 layer2_out_flat[18]
*44 rst
*45 clk
*46 layer2_out_flat[31]
*47 layer2_out_flat[30]
*48 layer2_out_flat[29]
*49 layer2_out_flat[28]
*50 layer2_out_flat[27]
*51 layer2_out_flat[26]
*52 add_76_I4/carry\[1\]
*53 add_76_I4/U33
*54 add_76_I4/U1_1
*55 add_76_I4/U1
*56 U58
*57 layer1_out\[3\]\[0\]
*58 add_76_I4_G2/U31
*59 add_76_I4_G2/U1
*60 layer1\[3\]\.neuron1/U18
*61 add_76_I4/carry\[17\]
*62 add_76_I4/U32
*63 add_76_I4/U31
*64 add_76_I4/U16
*65 layer2\[0\]\.acc\[16\]
*66 add_76_I4/U2
*67 layer2\[0\]\.acc_reg\[16\]
*68 add_76_I4/carry\[16\]
*69 add_76_I4/U1_15
*70 add_76_I4/carry\[18\]
*71 add_76_I4/U30
*72 add_76_I4/U15
*73 layer2\[0\]\.acc\[17\]
*74 layer2\[0\]\.acc_reg\[17\]
*75 add_76_I4/carry\[19\]
*76 add_76_I4/U29
*77 add_76_I4/U14
*78 layer2\[0\]\.acc\[18\]
*79 layer2\[0\]\.acc_reg\[18\]
*80 add_76_I4/carry\[20\]
*81 add_76_I4/U28
*82 add_76_I4/U13
*83 layer2\[0\]\.acc\[19\]
*84 layer2\[0\]\.acc_reg\[19\]
*85 add_76_I4/carry\[21\]
*86 add_76_I4/U27
*87 add_76_I4/U12
*88 layer2\[0\]\.acc\[20\]
*89 layer2\[0\]\.acc_reg\[20\]
*90 add_76_I4/carry\[22\]
*91 add_76_I4/U26
*92 add_76_I4/U11
*93 layer2\[0\]\.acc\[21\]
*94 layer2\[0\]\.acc_reg\[21\]
*95 add_76_I4/carry\[23\]
*96 add_76_I4/U25
*97 add_76_I4/U10
*98 layer2\[0\]\.acc\[22\]
*99 layer2\[0\]\.acc_reg\[22\]
*100 add_76_I4/carry\[24\]
*101 add_76_I4/U24
*102 add_76_I4/U9
*103 layer2\[0\]\.acc\[23\]
*104 layer2\[0\]\.acc_reg\[23\]
*105 add_76_I4/carry\[25\]
*106 add_76_I4/U23
*107 add_76_I4/U8
*108 layer2\[0\]\.acc\[24\]
*109 layer2\[0\]\.acc_reg\[24\]
*110 add_76_I4/carry\[26\]
*111 add_76_I4/U22
*112 add_76_I4/U7
*113 layer2\[0\]\.acc\[25\]
*114 layer2\[0\]\.acc_reg\[25\]
*115 add_76_I4/carry\[27\]
*116 add_76_I4/U21
*117 add_76_I4/U6
*118 layer2\[0\]\.acc\[26\]
*119 layer2\[0\]\.acc_reg\[26\]
*120 add_76_I4/carry\[28\]
*121 add_76_I4/U20
*122 add_76_I4/U5
*123 layer2\[0\]\.acc\[27\]
*124 layer2\[0\]\.acc_reg\[27\]
*125 add_76_I4/carry\[29\]
*126 add_76_I4/U19
*127 add_76_I4/U4
*128 layer2\[0\]\.acc\[28\]
*129 layer2\[0\]\.acc_reg\[28\]
*130 add_76_I4/carry\[30\]
*131 add_76_I4/U18
*132 add_76_I4/U3
*133 layer2\[0\]\.acc\[29\]
*134 layer2\[0\]\.acc_reg\[29\]
*135 layer2\[0\]\.acc\[30\]
*136 layer2\[0\]\.acc_reg\[30\]
*137 add_76_I4/n1
*138 add_76_I4/U17
*139 layer2\[0\]\.acc\[31\]
*140 layer2\[0\]\.acc_reg\[31\]
*141 N32
*142 N18
*143 N19
*144 N20
*145 N21
*146 N22
*147 N23
*148 N24
*149 N25
*150 N26
*151 N27
*152 N28
*153 N29
*154 N30
*155 N31
*156 N17
*157 N1
*158 layer2\[0\]\.acc_reg\[0\]
*159 layer2\[0\]\.acc_reg\[1\]
*160 add_76_I4/carry\[2\]
*161 add_76_I4/U1_2
*162 layer1_out\[3\]\[1\]
*163 add_76_I4_G2/U1_2
*164 layer1\[3\]\.neuron1/U11
*165 N2
*166 layer2\[0\]\.acc_reg\[2\]
*167 add_76_I4/carry\[3\]
*168 add_76_I4/U1_3
*169 layer1_out\[3\]\[2\]
*170 add_76_I4_G2/U1_3
*171 layer1\[3\]\.neuron1/U10
*172 N3
*173 U59
*174 add_76_I4/carry\[4\]
*175 add_76_I4/U1_4
*176 layer1_out\[3\]\[3\]
*177 add_76_I4_G2/U1_4
*178 layer1\[3\]\.neuron1/U9
*179 N4
*180 layer2\[0\]\.acc_reg\[3\]
*181 U60
*182 add_76_I4/carry\[5\]
*183 add_76_I4/U1_5
*184 layer1_out\[3\]\[4\]
*185 add_76_I4_G2/U1_5
*186 layer1\[3\]\.neuron1/U8
*187 N5
*188 layer2\[0\]\.acc_reg\[4\]
*189 U61
*190 add_76_I4/carry\[6\]
*191 add_76_I4/U1_6
*192 layer1_out\[3\]\[5\]
*193 add_76_I4_G2/U1_6
*194 layer1\[3\]\.neuron1/U7
*195 N6
*196 layer2\[0\]\.acc_reg\[5\]
*197 U62
*198 add_76_I4/carry\[7\]
*199 add_76_I4/U1_7
*200 layer1_out\[3\]\[6\]
*201 add_76_I4_G2/U1_7
*202 layer1\[3\]\.neuron1/U6
*203 N7
*204 layer2\[0\]\.acc_reg\[6\]
*205 U63
*206 add_76_I4/carry\[8\]
*207 add_76_I4/U1_8
*208 layer1_out\[3\]\[7\]
*209 add_76_I4_G2/U1_8
*210 layer1\[3\]\.neuron1/U5
*211 N8
*212 layer2\[0\]\.acc_reg\[7\]
*213 U64
*214 add_76_I4/carry\[9\]
*215 add_76_I4/U1_9
*216 layer1_out\[3\]\[8\]
*217 add_76_I4_G2/U1_9
*218 layer1\[3\]\.neuron1/U4
*219 N9
*220 layer2\[0\]\.acc_reg\[8\]
*221 layer2\[0\]\.acc_reg\[9\]
*222 add_76_I4/carry\[10\]
*223 add_76_I4/U1_10
*224 layer1_out\[3\]\[9\]
*225 add_76_I4_G2/U1_10
*226 layer1\[3\]\.neuron1/U3
*227 N10
*228 layer2\[0\]\.acc_reg\[10\]
*229 add_76_I4/carry\[11\]
*230 add_76_I4/U1_11
*231 layer1_out\[3\]\[10\]
*232 add_76_I4_G2/U1_11
*233 layer1\[3\]\.neuron1/U17
*234 N11
*235 layer2\[0\]\.acc_reg\[11\]
*236 add_76_I4/carry\[12\]
*237 add_76_I4/U1_12
*238 layer1_out\[3\]\[11\]
*239 add_76_I4_G2/U1_12
*240 layer1\[3\]\.neuron1/U16
*241 N12
*242 layer2\[0\]\.acc_reg\[12\]
*243 add_76_I4/carry\[13\]
*244 add_76_I4/U1_13
*245 layer1_out\[3\]\[12\]
*246 add_76_I4_G2/U1_13
*247 layer1\[3\]\.neuron1/U15
*248 N13
*249 layer2\[0\]\.acc_reg\[13\]
*250 add_76_I4/carry\[14\]
*251 add_76_I4/U1_14
*252 layer1_out\[3\]\[13\]
*253 add_76_I4_G2/U1_14
*254 layer1\[3\]\.neuron1/U14
*255 N14
*256 layer2\[0\]\.acc_reg\[14\]
*257 add_76_I4/carry\[15\]
*258 layer1_out\[3\]\[14\]
*259 add_76_I4_G2/U1_15
*260 layer1\[3\]\.neuron1/U13
*261 N15
*262 layer2\[0\]\.acc_reg\[15\]
*263 layer1_out\[3\]\[15\]
*264 add_76_I4_G2/U1_16
*265 layer1\[3\]\.neuron1/U12
*266 N16
*267 add_76_I4_G2/carry\[2\]
*268 layer2\[1\]\.acc_reg\[1\]
*269 add_76_I4_G2/carry\[18\]
*270 add_76_I4_G2/U30
*271 add_76_I4_G2/U29
*272 add_76_I4_G2/U15
*273 layer2\[1\]\.acc\[17\]
*274 add_76_I4_G2/U2
*275 layer2\[1\]\.acc_reg\[17\]
*276 add_76_I4_G2/carry\[17\]
*277 add_76_I4_G2/carry\[19\]
*278 add_76_I4_G2/U28
*279 add_76_I4_G2/U14
*280 layer2\[1\]\.acc\[18\]
*281 layer2\[1\]\.acc_reg\[18\]
*282 add_76_I4_G2/carry\[20\]
*283 add_76_I4_G2/U27
*284 add_76_I4_G2/U13
*285 layer2\[1\]\.acc\[19\]
*286 layer2\[1\]\.acc_reg\[19\]
*287 add_76_I4_G2/carry\[21\]
*288 add_76_I4_G2/U26
*289 add_76_I4_G2/U12
*290 layer2\[1\]\.acc\[20\]
*291 layer2\[1\]\.acc_reg\[20\]
*292 add_76_I4_G2/carry\[22\]
*293 add_76_I4_G2/U25
*294 add_76_I4_G2/U11
*295 layer2\[1\]\.acc\[21\]
*296 layer2\[1\]\.acc_reg\[21\]
*297 add_76_I4_G2/carry\[23\]
*298 add_76_I4_G2/U24
*299 add_76_I4_G2/U10
*300 layer2\[1\]\.acc\[22\]
*301 layer2\[1\]\.acc_reg\[22\]
*302 add_76_I4_G2/carry\[24\]
*303 add_76_I4_G2/U23
*304 add_76_I4_G2/U9
*305 layer2\[1\]\.acc\[23\]
*306 layer2\[1\]\.acc_reg\[23\]
*307 add_76_I4_G2/carry\[25\]
*308 add_76_I4_G2/U22
*309 add_76_I4_G2/U8
*310 layer2\[1\]\.acc\[24\]
*311 layer2\[1\]\.acc_reg\[24\]
*312 add_76_I4_G2/carry\[26\]
*313 add_76_I4_G2/U21
*314 add_76_I4_G2/U7
*315 layer2\[1\]\.acc\[25\]
*316 layer2\[1\]\.acc_reg\[25\]
*317 add_76_I4_G2/carry\[27\]
*318 add_76_I4_G2/U20
*319 add_76_I4_G2/U6
*320 layer2\[1\]\.acc\[26\]
*321 layer2\[1\]\.acc_reg\[26\]
*322 add_76_I4_G2/carry\[28\]
*323 add_76_I4_G2/U19
*324 add_76_I4_G2/U5
*325 layer2\[1\]\.acc\[27\]
*326 layer2\[1\]\.acc_reg\[27\]
*327 add_76_I4_G2/carry\[29\]
*328 add_76_I4_G2/U18
*329 add_76_I4_G2/U4
*330 layer2\[1\]\.acc\[28\]
*331 layer2\[1\]\.acc_reg\[28\]
*332 add_76_I4_G2/carry\[30\]
*333 add_76_I4_G2/U17
*334 add_76_I4_G2/U3
*335 layer2\[1\]\.acc\[29\]
*336 layer2\[1\]\.acc_reg\[29\]
*337 layer2\[1\]\.acc\[30\]
*338 layer2\[1\]\.acc_reg\[30\]
*339 add_76_I4_G2/n1
*340 add_76_I4_G2/U16
*341 layer2\[1\]\.acc\[31\]
*342 layer2\[1\]\.acc_reg\[31\]
*343 N65
*344 N52
*345 N53
*346 N54
*347 N55
*348 N56
*349 N57
*350 N58
*351 N59
*352 N60
*353 N61
*354 N62
*355 N63
*356 N64
*357 N51
*358 N35
*359 layer2\[1\]\.acc_reg\[2\]
*360 add_76_I4_G2/carry\[3\]
*361 N36
*362 layer2\[1\]\.acc_reg\[3\]
*363 add_76_I4_G2/carry\[4\]
*364 N37
*365 layer2\[1\]\.acc_reg\[4\]
*366 add_76_I4_G2/carry\[5\]
*367 N38
*368 layer2\[1\]\.acc_reg\[5\]
*369 add_76_I4_G2/carry\[6\]
*370 N39
*371 layer2\[1\]\.acc_reg\[6\]
*372 add_76_I4_G2/carry\[7\]
*373 N40
*374 layer2\[1\]\.acc_reg\[7\]
*375 add_76_I4_G2/carry\[8\]
*376 N41
*377 layer2\[1\]\.acc_reg\[8\]
*378 add_76_I4_G2/carry\[9\]
*379 N42
*380 layer2\[1\]\.acc_reg\[9\]
*381 add_76_I4_G2/carry\[10\]
*382 N43
*383 layer2\[1\]\.acc_reg\[10\]
*384 add_76_I4_G2/carry\[11\]
*385 N44
*386 layer2\[1\]\.acc_reg\[11\]
*387 add_76_I4_G2/carry\[12\]
*388 N45
*389 U65
*390 add_76_I4_G2/carry\[13\]
*391 N46
*392 layer2\[1\]\.acc_reg\[12\]
*393 U66
*394 add_76_I4_G2/carry\[14\]
*395 N47
*396 layer2\[1\]\.acc_reg\[13\]
*397 U67
*398 add_76_I4_G2/carry\[15\]
*399 N48
*400 layer2\[1\]\.acc_reg\[14\]
*401 U68
*402 add_76_I4_G2/carry\[16\]
*403 N49
*404 layer2\[1\]\.acc_reg\[15\]
*405 layer2\[1\]\.acc\[16\]
*406 layer2\[1\]\.acc_reg\[16\]
*407 N50
*408 layer1_mac_out\[3\]\[0\]
*409 layer1\[3\]\.mac1/add_14/U2
*410 layer1\[3\]\.mac1/add_14/U1
*411 layer1\[3\]\.mac1/acc_reg\[0\]
*412 layer1_mac_out\[3\]\[10\]
*413 layer1\[3\]\.mac1/add_14/U1_10
*414 layer1\[3\]\.mac1/acc_reg\[10\]
*415 layer1_mac_out\[3\]\[11\]
*416 layer1\[3\]\.mac1/add_14/U1_11
*417 layer1\[3\]\.mac1/acc_reg\[11\]
*418 layer1_mac_out\[3\]\[12\]
*419 layer1\[3\]\.mac1/add_14/U1_12
*420 layer1\[3\]\.mac1/acc_reg\[12\]
*421 layer1_mac_out\[3\]\[13\]
*422 layer1\[3\]\.mac1/add_14/U1_13
*423 layer1\[3\]\.mac1/acc_reg\[13\]
*424 layer1_mac_out\[3\]\[14\]
*425 layer1\[3\]\.mac1/add_14/U1_14
*426 layer1\[3\]\.mac1/acc_reg\[14\]
*427 layer1_mac_out\[3\]\[15\]
*428 layer1\[3\]\.mac1/add_14/U1_15
*429 layer1\[3\]\.mac1/acc_reg\[15\]
*430 layer1_mac_out\[3\]\[1\]
*431 layer1\[3\]\.mac1/add_14/U1_1
*432 layer1\[3\]\.mac1/acc_reg\[1\]
*433 layer1_mac_out\[3\]\[2\]
*434 layer1\[3\]\.mac1/add_14/U1_2
*435 layer1\[3\]\.mac1/acc_reg\[2\]
*436 layer1_mac_out\[3\]\[3\]
*437 layer1\[3\]\.mac1/add_14/U1_3
*438 layer1\[3\]\.mac1/acc_reg\[3\]
*439 layer1_mac_out\[3\]\[4\]
*440 layer1\[3\]\.mac1/add_14/U1_4
*441 layer1\[3\]\.mac1/acc_reg\[4\]
*442 layer1_mac_out\[3\]\[5\]
*443 layer1\[3\]\.mac1/add_14/U1_5
*444 layer1\[3\]\.mac1/acc_reg\[5\]
*445 layer1_mac_out\[3\]\[6\]
*446 layer1\[3\]\.mac1/add_14/U1_6
*447 layer1\[3\]\.mac1/acc_reg\[6\]
*448 layer1_mac_out\[3\]\[7\]
*449 layer1\[3\]\.mac1/add_14/U1_7
*450 layer1\[3\]\.mac1/acc_reg\[7\]
*451 layer1_mac_out\[3\]\[8\]
*452 layer1\[3\]\.mac1/add_14/U1_8
*453 layer1\[3\]\.mac1/acc_reg\[8\]
*454 layer1_mac_out\[3\]\[9\]
*455 layer1\[3\]\.mac1/add_14/U1_9
*456 layer1\[3\]\.mac1/acc_reg\[9\]
*457 layer1_mac_out\[3\]\[31\]
*458 layer1\[3\]\.mac1/acc_reg\[31\]
*459 U13
*460 layer1\[3\]\.mac1/mult_14/n612
*461 layer1\[3\]\.mac1/mult_14/U4
*462 layer1\[3\]\.mac1/mult_14/U512
*463 layer1\[3\]\.mac1/mult_14/n617
*464 layer1\[3\]\.mac1/mult_14/U14
*465 layer1\[3\]\.mac1/mult_14/U527
*466 layer1\[3\]\.mac1/mult_14/n611
*467 layer1\[3\]\.mac1/mult_14/U191
*468 layer1\[3\]\.mac1/mult_14/U190
*469 layer1\[3\]\.mac1/mult_14/U188
*470 layer1\[3\]\.mac1/mult_14/U3
*471 layer1\[3\]\.mac1/mult_14/U204
*472 layer1\[3\]\.mac1/mult_14/U203
*473 layer1\[3\]\.mac1/mult_14/U202
*474 layer1\[3\]\.mac1/mult_14/U201
*475 layer1\[3\]\.mac1/mult_14/U509
*476 layer1\[3\]\.mac1/mult_14/U507
*477 layer1\[3\]\.mac1/mult_14/U196
*478 layer1\[3\]\.mac1/mult_14/U195
*479 layer1\[3\]\.mac1/mult_14/U194
*480 layer1\[3\]\.mac1/mult_14/U193
*481 layer1\[3\]\.mac1/mult_14/U192
*482 layer1\[3\]\.mac1/mult_14/U200
*483 layer1\[3\]\.mac1/mult_14/U199
*484 layer1\[3\]\.mac1/mult_14/U198
*485 layer1\[3\]\.mac1/mult_14/U197
*486 layer1\[3\]\.mac1/mult_14/U189
*487 layer1\[3\]\.mac1/mult_14/n613
*488 layer1\[3\]\.mac1/mult_14/U6
*489 layer1\[3\]\.mac1/mult_14/U515
*490 layer1\[3\]\.mac1/mult_14/n33
*491 layer1\[3\]\.mac1/mult_14/U316
*492 layer1\[3\]\.mac1/mult_14/U9
*493 layer1\[3\]\.mac1/mult_14/n614
*494 layer1\[3\]\.mac1/mult_14/U8
*495 layer1\[3\]\.mac1/mult_14/U518
*496 layer1\[3\]\.mac1/mult_14/n27
*497 layer1\[3\]\.mac1/mult_14/U205
*498 layer1\[3\]\.mac1/mult_14/n615
*499 layer1\[3\]\.mac1/mult_14/U10
*500 layer1\[3\]\.mac1/mult_14/U521
*501 layer1\[3\]\.mac1/mult_14/n21
*502 layer1\[3\]\.mac1/mult_14/U410
*503 layer1\[3\]\.mac1/mult_14/U445
*504 layer1\[3\]\.mac1/mult_14/U1
*505 layer1\[3\]\.mac1/mult_14/n616
*506 layer1\[3\]\.mac1/mult_14/U12
*507 layer1\[3\]\.mac1/mult_14/U524
*508 layer1\[3\]\.mac1/mult_14/n610
*509 layer1\[3\]\.mac1/mult_14/U457
*510 layer1\[3\]\.mac1/mult_14/U456
*511 layer1\[3\]\.mac1/mult_14/U447
*512 layer1\[3\]\.mac1/mult_14/U454
*513 layer1\[3\]\.mac1/mult_14/U453
*514 layer1\[3\]\.mac1/mult_14/U455
*515 layer1\[3\]\.mac1/mult_14/U452
*516 layer1\[3\]\.mac1/mult_14/U451
*517 layer1\[3\]\.mac1/mult_14/U528
*518 layer1\[3\]\.mac1/mult_14/U463
*519 layer1\[3\]\.mac1/mult_14/U462
*520 layer1\[3\]\.mac1/mult_14/U461
*521 layer1\[3\]\.mac1/mult_14/U460
*522 layer1\[3\]\.mac1/mult_14/U459
*523 layer1\[3\]\.mac1/mult_14/U458
*524 layer1\[3\]\.mac1/mult_14/U450
*525 layer1\[3\]\.mac1/mult_14/U449
*526 layer1\[3\]\.mac1/mult_14/U448
*527 layer1\[3\]\.mac1/mult_14/n604
*528 layer1\[3\]\.mac1/mult_14/U235
*529 layer1\[3\]\.mac1/mult_14/U234
*530 layer1\[3\]\.mac1/mult_14/U225
*531 layer1\[3\]\.mac1/mult_14/U233
*532 layer1\[3\]\.mac1/mult_14/U232
*533 layer1\[3\]\.mac1/mult_14/U231
*534 layer1\[3\]\.mac1/mult_14/U230
*535 layer1\[3\]\.mac1/mult_14/U229
*536 layer1\[3\]\.mac1/mult_14/U510
*537 layer1\[3\]\.mac1/mult_14/U241
*538 layer1\[3\]\.mac1/mult_14/U240
*539 layer1\[3\]\.mac1/mult_14/U239
*540 layer1\[3\]\.mac1/mult_14/U238
*541 layer1\[3\]\.mac1/mult_14/U237
*542 layer1\[3\]\.mac1/mult_14/U236
*543 layer1\[3\]\.mac1/mult_14/U228
*544 layer1\[3\]\.mac1/mult_14/U227
*545 layer1\[3\]\.mac1/mult_14/U226
*546 layer1\[3\]\.mac1/mult_14/n603
*547 layer1\[3\]\.mac1/mult_14/n605
*548 layer1\[3\]\.mac1/mult_14/U272
*549 layer1\[3\]\.mac1/mult_14/U271
*550 layer1\[3\]\.mac1/mult_14/U270
*551 layer1\[3\]\.mac1/mult_14/U262
*552 layer1\[3\]\.mac1/mult_14/U269
*553 layer1\[3\]\.mac1/mult_14/U263
*554 layer1\[3\]\.mac1/mult_14/U264
*555 layer1\[3\]\.mac1/mult_14/U268
*556 layer1\[3\]\.mac1/mult_14/U513
*557 layer1\[3\]\.mac1/mult_14/U278
*558 layer1\[3\]\.mac1/mult_14/U277
*559 layer1\[3\]\.mac1/mult_14/U276
*560 layer1\[3\]\.mac1/mult_14/U275
*561 layer1\[3\]\.mac1/mult_14/U274
*562 layer1\[3\]\.mac1/mult_14/U273
*563 layer1\[3\]\.mac1/mult_14/U267
*564 layer1\[3\]\.mac1/mult_14/U265
*565 layer1\[3\]\.mac1/mult_14/U266
*566 layer1\[3\]\.mac1/mult_14/n36
*567 layer1\[3\]\.mac1/mult_14/U384
*568 layer1\[3\]\.mac1/mult_14/U383
*569 layer1\[3\]\.mac1/mult_14/U385
*570 layer1\[3\]\.mac1/mult_14/U386
*571 layer1\[3\]\.mac1/mult_14/U387
*572 layer1\[3\]\.mac1/mult_14/U388
*573 layer1\[3\]\.mac1/mult_14/U389
*574 layer1\[3\]\.mac1/mult_14/U382
*575 layer1\[3\]\.mac1/mult_14/U13
*576 layer1\[3\]\.mac1/mult_14/U381
*577 layer1\[3\]\.mac1/mult_14/U522
*578 layer1\[3\]\.mac1/mult_14/U373
*579 layer1\[3\]\.mac1/mult_14/U374
*580 layer1\[3\]\.mac1/mult_14/U380
*581 layer1\[3\]\.mac1/mult_14/U379
*582 layer1\[3\]\.mac1/mult_14/U375
*583 layer1\[3\]\.mac1/mult_14/U378
*584 layer1\[3\]\.mac1/mult_14/U376
*585 layer1\[3\]\.mac1/mult_14/U377
*586 layer1\[3\]\.mac1/mult_14/n606
*587 layer1\[3\]\.mac1/mult_14/U309
*588 layer1\[3\]\.mac1/mult_14/U308
*589 layer1\[3\]\.mac1/mult_14/U299
*590 layer1\[3\]\.mac1/mult_14/U307
*591 layer1\[3\]\.mac1/mult_14/U306
*592 layer1\[3\]\.mac1/mult_14/U305
*593 layer1\[3\]\.mac1/mult_14/U304
*594 layer1\[3\]\.mac1/mult_14/U300
*595 layer1\[3\]\.mac1/mult_14/U516
*596 layer1\[3\]\.mac1/mult_14/U315
*597 layer1\[3\]\.mac1/mult_14/U314
*598 layer1\[3\]\.mac1/mult_14/U313
*599 layer1\[3\]\.mac1/mult_14/U312
*600 layer1\[3\]\.mac1/mult_14/U311
*601 layer1\[3\]\.mac1/mult_14/U310
*602 layer1\[3\]\.mac1/mult_14/U303
*603 layer1\[3\]\.mac1/mult_14/U301
*604 layer1\[3\]\.mac1/mult_14/U302
*605 layer1\[3\]\.mac1/mult_14/n30
*606 layer1\[3\]\.mac1/mult_14/U7
*607 layer1\[3\]\.mac1/mult_14/n607
*608 layer1\[3\]\.mac1/mult_14/U346
*609 layer1\[3\]\.mac1/mult_14/U345
*610 layer1\[3\]\.mac1/mult_14/U336
*611 layer1\[3\]\.mac1/mult_14/U344
*612 layer1\[3\]\.mac1/mult_14/U343
*613 layer1\[3\]\.mac1/mult_14/U337
*614 layer1\[3\]\.mac1/mult_14/U342
*615 layer1\[3\]\.mac1/mult_14/U341
*616 layer1\[3\]\.mac1/mult_14/U519
*617 layer1\[3\]\.mac1/mult_14/U352
*618 layer1\[3\]\.mac1/mult_14/U351
*619 layer1\[3\]\.mac1/mult_14/U350
*620 layer1\[3\]\.mac1/mult_14/U349
*621 layer1\[3\]\.mac1/mult_14/U348
*622 layer1\[3\]\.mac1/mult_14/U347
*623 layer1\[3\]\.mac1/mult_14/U338
*624 layer1\[3\]\.mac1/mult_14/U340
*625 layer1\[3\]\.mac1/mult_14/U339
*626 layer1\[3\]\.mac1/mult_14/n24
*627 layer1\[3\]\.mac1/mult_14/U482
*628 layer1\[3\]\.mac1/mult_14/U2
*629 layer1\[3\]\.mac1/mult_14/n608
*630 layer1\[3\]\.mac1/mult_14/n609
*631 layer1\[3\]\.mac1/mult_14/U420
*632 layer1\[3\]\.mac1/mult_14/U419
*633 layer1\[3\]\.mac1/mult_14/U418
*634 layer1\[3\]\.mac1/mult_14/U417
*635 layer1\[3\]\.mac1/mult_14/U416
*636 layer1\[3\]\.mac1/mult_14/U415
*637 layer1\[3\]\.mac1/mult_14/U414
*638 layer1\[3\]\.mac1/mult_14/U525
*639 layer1\[3\]\.mac1/mult_14/U426
*640 layer1\[3\]\.mac1/mult_14/U425
*641 layer1\[3\]\.mac1/mult_14/U424
*642 layer1\[3\]\.mac1/mult_14/U423
*643 layer1\[3\]\.mac1/mult_14/U422
*644 layer1\[3\]\.mac1/mult_14/U421
*645 layer1\[3\]\.mac1/mult_14/U413
*646 layer1\[3\]\.mac1/mult_14/U412
*647 layer1\[3\]\.mac1/mult_14/U411
*648 shifted_data\[0\]
*649 ds/data_out_reg\[0\]
*650 U53
*651 layer1\[3\]\.mac1/mult_14/n602
*652 layer1\[3\]\.mac1/mult_14/U529
*653 shifted_data\[1\]
*654 ds/data_out_reg\[1\]
*655 U49
*656 shifted_data\[2\]
*657 ds/data_out_reg\[2\]
*658 U48
*659 layer1\[3\]\.mac1/mult_14/n601
*660 layer1\[3\]\.mac1/mult_14/U526
*661 shifted_data\[3\]
*662 ds/data_out_reg\[3\]
*663 U44
*664 shifted_data\[4\]
*665 ds/data_out_reg\[4\]
*666 U43
*667 layer1\[3\]\.mac1/mult_14/n600
*668 layer1\[3\]\.mac1/mult_14/U523
*669 shifted_data\[5\]
*670 ds/data_out_reg\[5\]
*671 U38
*672 shifted_data\[6\]
*673 ds/data_out_reg\[6\]
*674 U37
*675 layer1\[3\]\.mac1/mult_14/n599
*676 layer1\[3\]\.mac1/mult_14/U520
*677 shifted_data\[7\]
*678 ds/data_out_reg\[7\]
*679 U35
*680 U33
*681 shifted_data\[8\]
*682 ds/data_out_reg\[8\]
*683 U32
*684 layer1\[3\]\.mac1/mult_14/n598
*685 layer1\[3\]\.mac1/mult_14/U517
*686 shifted_data\[9\]
*687 ds/data_out_reg\[9\]
*688 U30
*689 U28
*690 shifted_data\[10\]
*691 ds/data_out_reg\[10\]
*692 U27
*693 layer1\[3\]\.mac1/mult_14/n597
*694 layer1\[3\]\.mac1/mult_14/U514
*695 shifted_data\[11\]
*696 ds/data_out_reg\[11\]
*697 U23
*698 U25
*699 shifted_data\[12\]
*700 ds/data_out_reg\[12\]
*701 U22
*702 layer1\[3\]\.mac1/mult_14/n596
*703 layer1\[3\]\.mac1/mult_14/U511
*704 shifted_data\[13\]
*705 ds/data_out_reg\[13\]
*706 U18
*707 U20
*708 shifted_data\[14\]
*709 ds/data_out_reg\[14\]
*710 U17
*711 layer1\[3\]\.mac1/mult_14/n595
*712 layer1\[3\]\.mac1/mult_14/U508
*713 shifted_data\[15\]
*714 ds/data_out_reg\[15\]
*715 U14
*716 layer1\[3\]\.mac1/mult_14/n578
*717 n27
*718 layer1\[2\]\.mac1/mult_14/U514
*719 layer1\[2\]\.mac1/mult_14/U515
*720 layer1\[1\]\.mac1/mult_14/U514
*721 layer1\[1\]\.mac1/mult_14/U515
*722 layer1\[0\]\.mac1/mult_14/U514
*723 layer1\[0\]\.mac1/mult_14/U515
*724 layer1\[3\]\.mac1/mult_14/n577
*725 layer1\[3\]\.mac1/mult_14/U481
*726 layer1\[3\]\.mac1/mult_14/n576
*727 layer1\[3\]\.mac1/mult_14/U480
*728 layer1\[3\]\.mac1/mult_14/n575
*729 layer1\[3\]\.mac1/mult_14/U479
*730 layer1\[3\]\.mac1/mult_14/n574
*731 layer1\[3\]\.mac1/mult_14/U478
*732 layer1\[3\]\.mac1/mult_14/n573
*733 layer1\[3\]\.mac1/mult_14/U477
*734 layer1\[3\]\.mac1/mult_14/n572
*735 layer1\[3\]\.mac1/mult_14/U476
*736 layer1\[3\]\.mac1/mult_14/n571
*737 layer1\[3\]\.mac1/mult_14/U475
*738 layer1\[3\]\.mac1/mult_14/n570
*739 layer1\[3\]\.mac1/mult_14/U474
*740 layer1\[3\]\.mac1/mult_14/n569
*741 layer1\[3\]\.mac1/mult_14/U473
*742 layer1\[3\]\.mac1/mult_14/n568
*743 layer1\[3\]\.mac1/mult_14/U472
*744 layer1\[3\]\.mac1/mult_14/n567
*745 layer1\[3\]\.mac1/mult_14/U471
*746 layer1\[3\]\.mac1/mult_14/n566
*747 layer1\[3\]\.mac1/mult_14/U470
*748 layer1\[3\]\.mac1/mult_14/n565
*749 layer1\[3\]\.mac1/mult_14/U469
*750 layer1\[3\]\.mac1/mult_14/n564
*751 layer1\[3\]\.mac1/mult_14/U468
*752 layer1\[3\]\.mac1/mult_14/n563
*753 layer1\[3\]\.mac1/mult_14/U467
*754 layer1\[3\]\.mac1/mult_14/n562
*755 layer1\[3\]\.mac1/mult_14/U466
*756 layer1\[3\]\.mac1/N1
*757 layer1\[3\]\.mac1/mult_14/U464
*758 layer1\[3\]\.mac1/mult_14/n442
*759 layer1\[3\]\.mac1/mult_14/U81
*760 layer1\[3\]\.mac1/mult_14/n441
*761 layer1\[3\]\.mac1/mult_14/U80
*762 layer1\[3\]\.mac1/mult_14/n440
*763 layer1\[3\]\.mac1/mult_14/U187
*764 layer1\[3\]\.mac1/mult_14/n439
*765 layer1\[3\]\.mac1/mult_14/U186
*766 layer1\[3\]\.mac1/mult_14/n438
*767 layer1\[3\]\.mac1/mult_14/U184
*768 layer1\[3\]\.mac1/mult_14/n437
*769 layer1\[3\]\.mac1/mult_14/U183
*770 layer1\[3\]\.mac1/mult_14/n436
*771 layer1\[3\]\.mac1/mult_14/U180
*772 layer1\[3\]\.mac1/mult_14/n435
*773 layer1\[3\]\.mac1/mult_14/U178
*774 layer1\[3\]\.mac1/mult_14/n434
*775 layer1\[3\]\.mac1/mult_14/U173
*776 layer1\[3\]\.mac1/mult_14/n433
*777 layer1\[3\]\.mac1/mult_14/U171
*778 layer1\[3\]\.mac1/mult_14/n432
*779 layer1\[3\]\.mac1/mult_14/U166
*780 layer1\[3\]\.mac1/mult_14/n431
*781 layer1\[3\]\.mac1/mult_14/U162
*782 layer1\[3\]\.mac1/mult_14/n430
*783 layer1\[3\]\.mac1/mult_14/U156
*784 layer1\[3\]\.mac1/mult_14/n429
*785 layer1\[3\]\.mac1/mult_14/U151
*786 layer1\[3\]\.mac1/mult_14/n428
*787 layer1\[3\]\.mac1/mult_14/U143
*788 layer1\[3\]\.mac1/mult_14/n427
*789 layer1\[3\]\.mac1/mult_14/U136
*790 layer1\[3\]\.mac1/mult_14/n314
*791 layer1\[3\]\.mac1/mult_14/n561
*792 layer1\[3\]\.mac1/mult_14/n560
*793 layer1\[3\]\.mac1/mult_14/U444
*794 layer1\[3\]\.mac1/mult_14/n559
*795 layer1\[3\]\.mac1/mult_14/U443
*796 layer1\[3\]\.mac1/mult_14/n558
*797 layer1\[3\]\.mac1/mult_14/U442
*798 layer1\[3\]\.mac1/mult_14/n557
*799 layer1\[3\]\.mac1/mult_14/U441
*800 layer1\[3\]\.mac1/mult_14/n556
*801 layer1\[3\]\.mac1/mult_14/U440
*802 layer1\[3\]\.mac1/mult_14/n555
*803 layer1\[3\]\.mac1/mult_14/U439
*804 layer1\[3\]\.mac1/mult_14/n554
*805 layer1\[3\]\.mac1/mult_14/U438
*806 layer1\[3\]\.mac1/mult_14/n553
*807 layer1\[3\]\.mac1/mult_14/U437
*808 layer1\[3\]\.mac1/mult_14/n552
*809 layer1\[3\]\.mac1/mult_14/U436
*810 layer1\[3\]\.mac1/mult_14/n551
*811 layer1\[3\]\.mac1/mult_14/U435
*812 layer1\[3\]\.mac1/mult_14/n550
*813 layer1\[3\]\.mac1/mult_14/U434
*814 layer1\[3\]\.mac1/mult_14/n549
*815 layer1\[3\]\.mac1/mult_14/U433
*816 layer1\[3\]\.mac1/mult_14/n548
*817 layer1\[3\]\.mac1/mult_14/U432
*818 layer1\[3\]\.mac1/mult_14/n547
*819 layer1\[3\]\.mac1/mult_14/U431
*820 layer1\[3\]\.mac1/mult_14/n546
*821 layer1\[3\]\.mac1/mult_14/U430
*822 layer1\[3\]\.mac1/mult_14/n545
*823 layer1\[3\]\.mac1/mult_14/U429
*824 layer1\[3\]\.mac1/mult_14/n426
*825 layer1\[3\]\.mac1/mult_14/U427
*826 layer1\[3\]\.mac1/mult_14/n425
*827 layer1\[3\]\.mac1/mult_14/n424
*828 layer1\[3\]\.mac1/mult_14/n423
*829 layer1\[3\]\.mac1/mult_14/n422
*830 layer1\[3\]\.mac1/mult_14/n421
*831 layer1\[3\]\.mac1/mult_14/n420
*832 layer1\[3\]\.mac1/mult_14/U177
*833 layer1\[3\]\.mac1/mult_14/n419
*834 layer1\[3\]\.mac1/mult_14/U174
*835 layer1\[3\]\.mac1/mult_14/n418
*836 layer1\[3\]\.mac1/mult_14/U170
*837 layer1\[3\]\.mac1/mult_14/n417
*838 layer1\[3\]\.mac1/mult_14/U165
*839 layer1\[3\]\.mac1/mult_14/n416
*840 layer1\[3\]\.mac1/mult_14/U161
*841 layer1\[3\]\.mac1/mult_14/n415
*842 layer1\[3\]\.mac1/mult_14/n414
*843 layer1\[3\]\.mac1/mult_14/U150
*844 layer1\[3\]\.mac1/mult_14/n413
*845 layer1\[3\]\.mac1/mult_14/U142
*846 layer1\[3\]\.mac1/mult_14/n412
*847 layer1\[3\]\.mac1/mult_14/U135
*848 layer1\[3\]\.mac1/mult_14/n177
*849 layer1\[3\]\.mac1/mult_14/U130
*850 layer1\[3\]\.mac1/mult_14/U123
*851 layer1\[3\]\.mac1/mult_14/n411
*852 layer1\[3\]\.mac1/mult_14/n313
*853 layer1\[3\]\.mac1/mult_14/U79
*854 layer1\[3\]\.mac1/mult_14/n544
*855 layer1\[3\]\.mac1/mult_14/U408
*856 layer1\[3\]\.mac1/mult_14/n543
*857 layer1\[3\]\.mac1/mult_14/U407
*858 layer1\[3\]\.mac1/mult_14/n542
*859 layer1\[3\]\.mac1/mult_14/U406
*860 layer1\[3\]\.mac1/mult_14/n541
*861 layer1\[3\]\.mac1/mult_14/U405
*862 layer1\[3\]\.mac1/mult_14/n540
*863 layer1\[3\]\.mac1/mult_14/U404
*864 layer1\[3\]\.mac1/mult_14/n539
*865 layer1\[3\]\.mac1/mult_14/U403
*866 layer1\[3\]\.mac1/mult_14/n538
*867 layer1\[3\]\.mac1/mult_14/U402
*868 layer1\[3\]\.mac1/mult_14/n537
*869 layer1\[3\]\.mac1/mult_14/U401
*870 layer1\[3\]\.mac1/mult_14/n536
*871 layer1\[3\]\.mac1/mult_14/U400
*872 layer1\[3\]\.mac1/mult_14/n535
*873 layer1\[3\]\.mac1/mult_14/U399
*874 layer1\[3\]\.mac1/mult_14/n534
*875 layer1\[3\]\.mac1/mult_14/U398
*876 layer1\[3\]\.mac1/mult_14/n533
*877 layer1\[3\]\.mac1/mult_14/U397
*878 layer1\[3\]\.mac1/mult_14/n532
*879 layer1\[3\]\.mac1/mult_14/U396
*880 layer1\[3\]\.mac1/mult_14/n531
*881 layer1\[3\]\.mac1/mult_14/U395
*882 layer1\[3\]\.mac1/mult_14/n530
*883 layer1\[3\]\.mac1/mult_14/U394
*884 layer1\[3\]\.mac1/mult_14/n529
*885 layer1\[3\]\.mac1/mult_14/U393
*886 layer1\[3\]\.mac1/mult_14/n528
*887 layer1\[3\]\.mac1/mult_14/U392
*888 layer1\[3\]\.mac1/mult_14/n410
*889 layer1\[3\]\.mac1/mult_14/U390
*890 layer1\[3\]\.mac1/mult_14/n409
*891 layer1\[3\]\.mac1/mult_14/U185
*892 layer1\[3\]\.mac1/mult_14/n408
*893 layer1\[3\]\.mac1/mult_14/U182
*894 layer1\[3\]\.mac1/mult_14/n407
*895 layer1\[3\]\.mac1/mult_14/n406
*896 layer1\[3\]\.mac1/mult_14/n405
*897 layer1\[3\]\.mac1/mult_14/n404
*898 layer1\[3\]\.mac1/mult_14/n403
*899 layer1\[3\]\.mac1/mult_14/n402
*900 layer1\[3\]\.mac1/mult_14/U160
*901 layer1\[3\]\.mac1/mult_14/n401
*902 layer1\[3\]\.mac1/mult_14/U155
*903 layer1\[3\]\.mac1/mult_14/n400
*904 layer1\[3\]\.mac1/mult_14/U149
*905 layer1\[3\]\.mac1/mult_14/n399
*906 layer1\[3\]\.mac1/mult_14/n398
*907 layer1\[3\]\.mac1/mult_14/n397
*908 layer1\[3\]\.mac1/mult_14/U129
*909 layer1\[3\]\.mac1/mult_14/n396
*910 layer1\[3\]\.mac1/mult_14/U122
*911 layer1\[3\]\.mac1/mult_14/n151
*912 layer1\[3\]\.mac1/mult_14/U117
*913 layer1\[3\]\.mac1/mult_14/U111
*914 layer1\[3\]\.mac1/mult_14/n395
*915 layer1\[3\]\.mac1/mult_14/n312
*916 layer1\[3\]\.mac1/mult_14/n527
*917 layer1\[3\]\.mac1/mult_14/U371
*918 layer1\[3\]\.mac1/mult_14/n526
*919 layer1\[3\]\.mac1/mult_14/U370
*920 layer1\[3\]\.mac1/mult_14/n525
*921 layer1\[3\]\.mac1/mult_14/U369
*922 layer1\[3\]\.mac1/mult_14/n524
*923 layer1\[3\]\.mac1/mult_14/U368
*924 layer1\[3\]\.mac1/mult_14/n523
*925 layer1\[3\]\.mac1/mult_14/U367
*926 layer1\[3\]\.mac1/mult_14/n522
*927 layer1\[3\]\.mac1/mult_14/U366
*928 layer1\[3\]\.mac1/mult_14/n521
*929 layer1\[3\]\.mac1/mult_14/U365
*930 layer1\[3\]\.mac1/mult_14/n520
*931 layer1\[3\]\.mac1/mult_14/U364
*932 layer1\[3\]\.mac1/mult_14/n519
*933 layer1\[3\]\.mac1/mult_14/U363
*934 layer1\[3\]\.mac1/mult_14/n518
*935 layer1\[3\]\.mac1/mult_14/U362
*936 layer1\[3\]\.mac1/mult_14/n517
*937 layer1\[3\]\.mac1/mult_14/U361
*938 layer1\[3\]\.mac1/mult_14/n516
*939 layer1\[3\]\.mac1/mult_14/U360
*940 layer1\[3\]\.mac1/mult_14/n515
*941 layer1\[3\]\.mac1/mult_14/U359
*942 layer1\[3\]\.mac1/mult_14/n514
*943 layer1\[3\]\.mac1/mult_14/U358
*944 layer1\[3\]\.mac1/mult_14/n513
*945 layer1\[3\]\.mac1/mult_14/U357
*946 layer1\[3\]\.mac1/mult_14/n512
*947 layer1\[3\]\.mac1/mult_14/U356
*948 layer1\[3\]\.mac1/mult_14/n511
*949 layer1\[3\]\.mac1/mult_14/U355
*950 layer1\[3\]\.mac1/mult_14/n394
*951 layer1\[3\]\.mac1/mult_14/U353
*952 layer1\[3\]\.mac1/mult_14/n393
*953 layer1\[3\]\.mac1/mult_14/U181
*954 layer1\[3\]\.mac1/mult_14/n392
*955 layer1\[3\]\.mac1/mult_14/n391
*956 layer1\[3\]\.mac1/mult_14/n390
*957 layer1\[3\]\.mac1/mult_14/n389
*958 layer1\[3\]\.mac1/mult_14/n388
*959 layer1\[3\]\.mac1/mult_14/n387
*960 layer1\[3\]\.mac1/mult_14/n386
*961 layer1\[3\]\.mac1/mult_14/n385
*962 layer1\[3\]\.mac1/mult_14/U144
*963 layer1\[3\]\.mac1/mult_14/n384
*964 layer1\[3\]\.mac1/mult_14/U138
*965 layer1\[3\]\.mac1/mult_14/U137
*966 layer1\[3\]\.mac1/mult_14/n383
*967 layer1\[3\]\.mac1/mult_14/U128
*968 layer1\[3\]\.mac1/mult_14/n382
*969 layer1\[3\]\.mac1/mult_14/n381
*970 layer1\[3\]\.mac1/mult_14/U116
*971 layer1\[3\]\.mac1/mult_14/n380
*972 layer1\[3\]\.mac1/mult_14/U110
*973 layer1\[3\]\.mac1/mult_14/n129
*974 layer1\[3\]\.mac1/mult_14/U106
*975 layer1\[3\]\.mac1/mult_14/U101
*976 layer1\[3\]\.mac1/mult_14/n379
*977 layer1\[3\]\.mac1/mult_14/n311
*978 layer1\[3\]\.mac1/mult_14/n510
*979 layer1\[3\]\.mac1/mult_14/U334
*980 layer1\[3\]\.mac1/mult_14/n509
*981 layer1\[3\]\.mac1/mult_14/U333
*982 layer1\[3\]\.mac1/mult_14/n508
*983 layer1\[3\]\.mac1/mult_14/U332
*984 layer1\[3\]\.mac1/mult_14/n507
*985 layer1\[3\]\.mac1/mult_14/U331
*986 layer1\[3\]\.mac1/mult_14/n506
*987 layer1\[3\]\.mac1/mult_14/U330
*988 layer1\[3\]\.mac1/mult_14/n505
*989 layer1\[3\]\.mac1/mult_14/U329
*990 layer1\[3\]\.mac1/mult_14/n504
*991 layer1\[3\]\.mac1/mult_14/U328
*992 layer1\[3\]\.mac1/mult_14/n503
*993 layer1\[3\]\.mac1/mult_14/U327
*994 layer1\[3\]\.mac1/mult_14/n502
*995 layer1\[3\]\.mac1/mult_14/U326
*996 layer1\[3\]\.mac1/mult_14/n501
*997 layer1\[3\]\.mac1/mult_14/U325
*998 layer1\[3\]\.mac1/mult_14/n500
*999 layer1\[3\]\.mac1/mult_14/U324
*1000 layer1\[3\]\.mac1/mult_14/n499
*1001 layer1\[3\]\.mac1/mult_14/U323
*1002 layer1\[3\]\.mac1/mult_14/n498
*1003 layer1\[3\]\.mac1/mult_14/U322
*1004 layer1\[3\]\.mac1/mult_14/n497
*1005 layer1\[3\]\.mac1/mult_14/U321
*1006 layer1\[3\]\.mac1/mult_14/n496
*1007 layer1\[3\]\.mac1/mult_14/U320
*1008 layer1\[3\]\.mac1/mult_14/n495
*1009 layer1\[3\]\.mac1/mult_14/U319
*1010 layer1\[3\]\.mac1/mult_14/n494
*1011 layer1\[3\]\.mac1/mult_14/U318